REMARK SMILES [NH2:0][C@@H:0]([CH2:0][c:0]1[cH:0][c:0]([I:0])[c:0]([O:0][c:0]2[cH:0][c:0]([I:0])[c:0]([OH:0])[c:0]([I:0])[cH:0]2)[c:0]([I:0])[cH:0]1)[C:0](=[O:0])[OH:0]
REMARK SMILES IDX 7 1 20 2 4 3 21 4 5 5 8 6 6 7 19 8 9 9 10 10 18 11 11 12
REMARK SMILES IDX 16 13 12 14 17 15 14 16 13 17 15 18 3 20 2 21 1 22 22 25
REMARK SMILES IDX 23 26 24 27
REMARK H PARENT 15 19 1 23 1 24 24 28
REMARK Flexibility Score: inf
ROOT
ATOM      1  I   UNL     1       4.147  19.790  28.832  1.00  0.00    -0.040 I 
ATOM      2  I   UNL     1       1.748  19.360  34.428  1.00  0.00    -0.040 I 
ATOM      3  C   UNL     1       1.451  22.210  31.190  1.00  0.00    -0.043 A 
ATOM      4  C   UNL     1       1.307  21.542  32.395  1.00  0.00     0.022 A 
ATOM      5  C   UNL     1       2.257  21.713  30.181  1.00  0.00     0.022 A 
ATOM      6  C   UNL     1       2.806  19.827  31.589  1.00  0.00     0.154 A 
ATOM      7  C   UNL     1       2.939  20.512  30.381  1.00  0.00     0.057 A 
ATOM      8  C   UNL     1       1.990  20.342  32.596  1.00  0.00     0.057 A 
ENDROOT
BRANCH   6   9
ATOM      9  O   UNL     1       3.473  18.652  31.784  1.00  0.00    -0.455 OA
BRANCH   9  10
ATOM     10  C   UNL     1       4.739  18.720  32.335  1.00  0.00     0.129 A 
ATOM     11  C   UNL     1       5.212  19.937  32.796  1.00  0.00     0.065 A 
ATOM     12  C   UNL     1       5.506  17.571  32.412  1.00  0.00     0.065 A 
ATOM     13  C   UNL     1       6.489  20.007  33.351  1.00  0.00     0.060 A 
ATOM     14  C   UNL     1       6.784  17.639  32.968  1.00  0.00     0.060 A 
ATOM     15  I   UNL     1       7.169  21.862  34.038  1.00  0.00    -0.040 I 
ATOM     16  C   UNL     1       7.275  18.858  33.437  1.00  0.00     0.142 A 
ATOM     17  I   UNL     1       7.914  15.882  33.069  1.00  0.00    -0.040 I 
BRANCH  16  18
ATOM     18  O   UNL     1       8.527  18.925  33.980  1.00  0.00    -0.506 OA
ATOM     19  H   UNL     1       8.922  18.037  33.957  1.00  0.00     0.293 HD
ENDBRANCH  16  18
ENDBRANCH   9  10
ENDBRANCH   6   9
BRANCH   3  20
ATOM     20  C   UNL     1       0.711  23.510  30.973  1.00  0.00     0.066 C 
BRANCH  20  21
ATOM     21  C   UNL     1       1.616  24.743  31.116  1.00  0.00     0.166 C 
BRANCH  21  22
ATOM     22  N   UNL     1       0.871  25.834  31.740  1.00  0.00    -0.318 NA
ATOM     23  H   UNL     1       0.566  25.550  32.671  1.00  0.00     0.119 HD
ATOM     24  H   UNL     1       0.017  26.016  31.213  1.00  0.00     0.119 HD
ENDBRANCH  21  22
BRANCH  21  25
ATOM     25  C   UNL     1       2.095  25.258  29.770  1.00  0.00     0.320 C 
ATOM     26  O   UNL     1       1.515  26.100  29.096  1.00  0.00    -0.251 OA
BRANCH  25  27
ATOM     27  O   UNL     1       3.278  24.706  29.396  1.00  0.00    -0.480 OA
ATOM     28  H   UNL     1       3.588  25.053  28.533  1.00  0.00     0.296 HD
ENDBRANCH  25  27
ENDBRANCH  21  25
ENDBRANCH  20  21
ENDBRANCH   3  20
TORSDOF 8
