REMARK SMILES [NH2:0][C@@H:0]([CH2:0][c:0]1[cH:0][c:0]([I:0])[c:0]([O:0][c:0]2[cH:0][c:0]([I:0])[c:0]([OH:0])[c:0]([I:0])[cH:0]2)[c:0]([I:0])[cH:0]1)[C:0](=[O:0])[OH:0]
REMARK SMILES IDX 7 1 20 2 4 3 21 4 5 5 8 6 6 7 19 8 9 9 10 10 18 11 11 12
REMARK SMILES IDX 16 13 12 14 17 15 14 16 13 17 15 18 3 20 2 21 1 22 22 25
REMARK SMILES IDX 23 26 24 27
REMARK H PARENT 15 19 1 23 1 24 24 28
REMARK Flexibility Score: inf
ROOT
ATOM      1  I   UNL     1       4.335  20.026  28.816  1.00  0.00    -0.040 I 
ATOM      2  I   UNL     1       4.824  18.188  34.615  1.00  0.00    -0.040 I 
ATOM      3  C   UNL     1       1.591  19.624  32.131  1.00  0.00    -0.043 A 
ATOM      4  C   UNL     1       2.349  19.146  33.187  1.00  0.00     0.022 A 
ATOM      5  C   UNL     1       2.155  19.874  30.892  1.00  0.00     0.022 A 
ATOM      6  C   UNL     1       4.295  19.158  31.756  1.00  0.00     0.154 A 
ATOM      7  C   UNL     1       3.517  19.639  30.702  1.00  0.00     0.057 A 
ATOM      8  C   UNL     1       3.711  18.911  32.998  1.00  0.00     0.057 A 
ENDROOT
BRANCH   6   9
ATOM      9  O   UNL     1       5.628  18.927  31.570  1.00  0.00    -0.455 OA
BRANCH   9  10
ATOM     10  C   UNL     1       6.499  19.969  31.828  1.00  0.00     0.129 A 
ATOM     11  C   UNL     1       5.992  21.184  32.256  1.00  0.00     0.065 A 
ATOM     12  C   UNL     1       7.858  19.775  31.651  1.00  0.00     0.065 A 
ATOM     13  C   UNL     1       6.870  22.236  32.516  1.00  0.00     0.060 A 
ATOM     14  C   UNL     1       8.737  20.826  31.911  1.00  0.00     0.060 A 
ATOM     15  I   UNL     1       6.068  24.057  33.163  1.00  0.00    -0.040 I 
ATOM     16  C   UNL     1       8.242  22.057  32.343  1.00  0.00     0.142 A 
ATOM     17  I   UNL     1      10.784  20.496  31.634  1.00  0.00    -0.040 I 
BRANCH  16  18
ATOM     18  O   UNL     1       9.103  23.087  32.597  1.00  0.00    -0.506 OA
ATOM     19  H   UNL     1      10.010  22.782  32.424  1.00  0.00     0.293 HD
ENDBRANCH  16  18
ENDBRANCH   9  10
ENDBRANCH   6   9
BRANCH   3  20
ATOM     20  C   UNL     1       0.115  19.878  32.336  1.00  0.00     0.066 C 
BRANCH  20  21
ATOM     21  C   UNL     1      -0.184  21.307  32.814  1.00  0.00     0.166 C 
BRANCH  21  22
ATOM     22  N   UNL     1      -1.504  21.353  33.440  1.00  0.00    -0.318 NA
ATOM     23  H   UNL     1      -1.519  20.734  34.250  1.00  0.00     0.119 HD
ATOM     24  H   UNL     1      -2.205  20.985  32.797  1.00  0.00     0.119 HD
ENDBRANCH  21  22
BRANCH  21  25
ATOM     25  C   UNL     1      -0.214  22.299  31.664  1.00  0.00     0.320 C 
ATOM     26  O   UNL     1      -1.205  22.568  30.998  1.00  0.00    -0.251 OA
BRANCH  25  27
ATOM     27  O   UNL     1       0.989  22.898  31.467  1.00  0.00    -0.480 OA
ATOM     28  H   UNL     1       0.959  23.547  30.732  1.00  0.00     0.296 HD
ENDBRANCH  25  27
ENDBRANCH  21  25
ENDBRANCH  20  21
ENDBRANCH   3  20
TORSDOF 8
